# Draft CIF file generated with Atomsk

data_I

_audit_creation_date      'Apr. 3, 2025'
_audit_creation_method    'Draft CIF file generated with Atomsk'
 
_chemical_name_common             ?
_chemical_melting_point           ?
_chemical_formula_iupac           'Si32'
_chemical_formula_moiety          'Si32'
_chemical_formula_sum             'Si32'
_chemical_formula_weight          898.720
_chemical_compound_source         ?
_chemical_absolute_configuration  ?
_exptl_crystal_description        'EDIT-ENTRY'
_diffrn_measurement_device_type   'EDIT-ENTRY'
 
_space_group_IT_number            1
_space_group_crystal_system       tetragonal
_symmetry_space_group_name_Hall   'P 1'
_symmetry_space_group_name_H-M    'P 1'
 
loop_
_space_group_symop_operation_xyz
'+x,+y,+z'
 
_cell_length_a                    10.8874
_cell_length_b                    10.8874
_cell_length_c                    5.4437
_cell_angle_alpha                 90.0000
_cell_angle_beta                  90.0000
_cell_angle_gamma                 90.0000
_cell_volume                      645.2724
 
loop_
 _atom_site_label
 _atom_site_type_symbol
 _atom_site_fract_x
 _atom_site_fract_y
 _atom_site_fract_z
 _atom_site_occupancy
Si1  Si  0.375000  0.375000  0.250000 1.000000
Si2  Si  0.000000  0.250000  0.500000 1.000000
Si3  Si  0.375000  0.125000  0.750000 1.000000
Si4  Si  0.000000  0.000000  0.000000 1.000000
Si5  Si  0.125000  0.375000  0.750000 1.000000
Si6  Si  0.250000  0.250000  0.000000 1.000000
Si7  Si  0.125000  0.125000  0.250000 1.000000
Si8  Si  0.250000  0.000000  0.500000 1.000000
Si9  Si  0.875000  0.375000  0.250000 1.000000
Si10  Si  0.500000  0.250000  0.500000 1.000000
Si11  Si  0.875000  0.125000  0.750000 1.000000
Si12  Si  0.500000  0.000000  0.000000 1.000000
Si13  Si  0.625000  0.375000  0.750000 1.000000
Si14  Si  0.750000  0.250000  0.000000 1.000000
Si15  Si  0.625000  0.125000  0.250000 1.000000
Si16  Si  0.750000  0.000000  0.500000 1.000000
Si17  Si  0.375000  0.875000  0.250000 1.000000
Si18  Si  0.000000  0.750000  0.500000 1.000000
Si19  Si  0.375000  0.625000  0.750000 1.000000
Si20  Si  0.000000  0.500000  0.000000 1.000000
Si21  Si  0.125000  0.875000  0.750000 1.000000
Si22  Si  0.250000  0.750000  0.000000 1.000000
Si23  Si  0.125000  0.625000  0.250000 1.000000
Si24  Si  0.250000  0.500000  0.500000 1.000000
Si25  Si  0.875000  0.875000  0.250000 1.000000
Si26  Si  0.500000  0.750000  0.500000 1.000000
Si27  Si  0.875000  0.625000  0.750000 1.000000
Si28  Si  0.500000  0.500000  0.000000 1.000000
Si29  Si  0.625000  0.875000  0.750000 1.000000
Si30  Si  0.750000  0.750000  0.000000 1.000000
Si31  Si  0.625000  0.625000  0.250000 1.000000
Si32  Si  0.750000  0.500000  0.500000 1.000000

# end of cif file
