LAMMPS (29 Aug 2024)
# LAMMPS input script for system build with input of substrate, graphene sheet and AFM tip

clear

units           metal
atom_style      atomic
neighbor        0.3 bin
neigh_modify    every 1 delay 0 check yes #every 5

boundary   	    p p f
region box block 0.0 100.112067213033 0.0 100.389002921108 -5 100
create_box      18 box
Created orthogonal box = (0 0 -5) to (100.11207 100.389 100)

#----------------- Read data files -----------------------

read_data       scripts/afm/h-CrO2/size_100x_100y/sub_aSi/tip_Si_r25/K300/system_build/sub.lmp add append group sub
Reading data file ...
  orthogonal box = (0 0 -5) to (100.11207 100.389 100)
  reading atoms ...
  5001 atoms
  reading velocities ...
  5001 velocities
read_data       scripts/afm/h-CrO2/size_100x_100y/sub_aSi/tip_Si_r25/K300/system_build/tip.lmp add append shift 50.0560336065165 50.194501460554 55.0  group tip offset 3 0 0 0 0
Reading data file ...
  orthogonal box = (0 0 -5) to (100.11207 100.389 100)
  reading atoms ...
  505 atoms
  reading velocities ...
  505 velocities
read_data       scripts/afm/h-CrO2/size_100x_100y/sub_aSi/tip_Si_r25/K300/system_build/h-CrO2_1.lmp add append shift 0.0 0.0 14.5 group 2D offset 6 0 0 0 0
Reading data file ...
  orthogonal box = (0 0 -5) to (100.11207 100.389 100)
  reading atoms ...
  5016 atoms

# Apply potentials

include        scripts/afm/h-CrO2/size_100x_100y/sub_aSi/tip_Si_r25/K300/l_1/lammps/system.in.settings
mass 1*3 28.085 #Si sub
mass 4*6 28.085 #Si tip
mass 7*10 51.9961 #Cr 2D
mass 11*18 15.999 #O 2D
group sub_all type 1 2 3
5001 atoms in group sub_all
group sub_fix type 2
999 atoms in group sub_fix
group sub_thermo type 3
1530 atoms in group sub_thermo
group tip_all type 4 5 6
505 atoms in group tip_all
group tip_fix type 5
261 atoms in group tip_fix
group tip_thermo type 6
68 atoms in group tip_thermo
group 2D_all type 7 8 9 10 11 12 13 14 15 16 17 18
5016 atoms in group 2D_all
group layer_1 type 7 8 9 10 11 12 13 14 15 16 17 18
5016 atoms in group layer_1
group mobile union tip_thermo sub_thermo
1598 atoms in group mobile
pair_style hybrid sw sw sw  lj/cut 8.0
pair_coeff * * sw 1 scripts/afm/h-CrO2/size_100x_100y/sub_aSi/tip_Si_r25/K300/potentials/Si.sw Si  Si  Si  NULL  NULL  NULL  NULL  NULL  NULL  NULL  NULL  NULL  NULL  NULL  NULL  NULL  NULL  NULL # interlayer Sub
Reading sw potential file scripts/afm/h-CrO2/size_100x_100y/sub_aSi/tip_Si_r25/K300/potentials/Si.sw with DATE: 2007-06-11
pair_coeff * * sw 2 scripts/afm/h-CrO2/size_100x_100y/sub_aSi/tip_Si_r25/K300/potentials/Si.sw NULL  NULL  NULL  Si  Si  Si  NULL  NULL  NULL  NULL  NULL  NULL  NULL  NULL  NULL  NULL  NULL  NULL # interlayer Tip
Reading sw potential file scripts/afm/h-CrO2/size_100x_100y/sub_aSi/tip_Si_r25/K300/potentials/Si.sw with DATE: 2007-06-11
pair_coeff * * sw 3 scripts/afm/h-CrO2/size_100x_100y/sub_aSi/tip_Si_r25/K300/potentials/h-CrO2.sw NULL  NULL  NULL  NULL  NULL  NULL  Cr1  Cr2  Cr3  Cr4  O1  O2  O3  O4  O5  O6  O7  O8 # interlayer '2D' Layer 1
pair_coeff 1*3 7*10 lj/cut 0.0033673013365522844 3.659
pair_coeff 4*6 7*10 lj/cut 0.0033673013365522844 3.659
pair_coeff 1*3 11*18 lj/cut 0.006734602673104569 3.8975
pair_coeff 4*6 11*18 lj/cut 0.006734602673104569 3.8975
pair_coeff 1*3 4*6  lj/cut 0.0174320868 4.295

#----------------- Create visualisation files ------------

dump            sys all atom 1000 ./scripts/afm/h-CrO2/size_100x_100y/sub_aSi/tip_Si_r25/K300/visuals/system_1.lammpstrj

#----------------- Minimize the system -------------------

min_style       cg
minimize        1.0e-4 1.0e-8 100 1000

CITE-CITE-CITE-CITE-CITE-CITE-CITE-CITE-CITE-CITE-CITE-CITE-CITE

Your simulation uses code contributions which should be cited:

- Type Label Framework: https://doi.org/10.1021/acs.jpcb.3c08419

@Article{Gissinger24,
 author = {Jacob R. Gissinger, Ilia Nikiforov, Yaser Afshar, Brendon Waters, Moon-ki Choi, Daniel S. Karls, Alexander Stukowski, Wonpil Im, Hendrik Heinz, Axel Kohlmeyer, and Ellad B. Tadmor},
 title = {Type Label Framework for Bonded Force Fields in LAMMPS},
 journal = {J. Phys. Chem. B},
 year =    2024,
 volume =  128,
 number =  13,
 pages =   {3282â€“-3297}
}

CITE-CITE-CITE-CITE-CITE-CITE-CITE-CITE-CITE-CITE-CITE-CITE-CITE

Step          Temp          E_pair         E_mol          TotEng         Press
0   144.61637     -25715.548      0             -25518.878     -3069.1222
Loop time of 0.169722 on 8 procs for 49 steps with 10522 atoms

Minimization stats:
  Stopping criterion = energy tolerance
  Energy initial, next-to-last, final =
  Force two-norm initial, final = 4536.0895 12.29255
  Force max component initial, final = 2155.6681 1.7555105
  Final line search alpha, max atom move = 0.056879757 0.099853012
  Iterations, force evaluations = 49 50

timestep        0.001
thermo          100

group           fixset union sub_fix tip_fix
1260 atoms in group fixset
group           system subtract all fixset
9262 atoms in group system

velocity        system create 300 492847948

compute         temp_tip tip_thermo temp/partial 0 1 0
fix             lang_tip tip_thermo langevin 300 300 $(100.0*dt) 699483 zero yes
fix             lang_tip tip_thermo langevin 300 300 0.10000000000000000555 699483 zero yes
fix_modify      lang_tip temp temp_tip

compute         temp_sub sub_thermo temp/partial 0 1 0
fix             lang_sub sub_thermo langevin 300 300 $(100.0*dt) 2847563 zero yes
fix             lang_sub sub_thermo langevin 300 300 0.10000000000000000555 2847563 zero yes
fix_modify      lang_sub temp temp_sub

fix             nve_all all nve

fix             sub_fix sub_fix setforce 0.0 0.0 0.0
velocity        sub_fix set 0.0 0.0 0.0

fix             tip_f tip_fix rigid/nve single force * off off off torque * off off off
  1 rigid bodies with 261 atoms

run             10000
Step          Temp          E_pair         E_mol          TotEng         Press
49   270.7367      -28125.92       0             -27766.797     -3734.4487
Averages over the last 51 of 102 rows, steps 5100 to 10049:
Temp E_pair E_mol TotEng Press
201.757 -28101.9 0 -27834.2 -3759.04
Loop time of 24.0885 on 8 procs for 10000 steps with 10522 atoms

unfix           tip_f

##########################################################
#--------------------Tip Indentation---------------------#
##########################################################
#----------------- Displace tip closer -------------------

displace_atoms  tip_all move 0.0 0.0 -20.0 units box
Displacing atoms ...

#----------------- Apply constraints ---------------------

#Fix the bottom layer of the base and the edges of the graphene

fix             tip_f tip_fix rigid/nve single force * off off on torque * off off off
  1 rigid bodies with 261 atoms

#----------------- Set up initial parameters -------------

                variable find equal 5
variable        num_floads equal 500
variable        r equal 0.0
variable        f equal 0.0
variable        fincr equal 5/(500)
thermo_modify   lost ignore flush yes

#----------------- Apply pressure to the tip -------------

variable i loop 500
label loop_load

variable f equal 0+0.01

# Set force variable

variable Fatom equal -v_f/(count(tip_fix)*1.602176565)
fix forcetip tip_fix aveforce 0.0 0.0 -2.391382890138e-05
run 100
Step          Temp          E_pair         E_mol          TotEng         Press
10049   201.03377     -28111.522      0             -27844.857     -3766.0822
Loop time of 0.243794 on 8 procs for 100 steps with 10522 atoms

unfix forcetip

next i
jump SELF loop_load

variable f equal 0.01+0.01

# Set force variable

variable Fatom equal -v_f/(count(tip_fix)*1.602176565)
fix forcetip tip_fix aveforce 0.0 0.0 -4.782765780276e-05
run 100
Step          Temp          E_pair         E_mol          TotEng         Press
10149   200.88462     -28113.461      0             -27846.994     -3682.3102
Loop time of 0.248066 on 8 procs for 100 steps with 10522 atoms

unfix forcetip

next i
jump SELF loop_load

variable f equal 0.02+0.01

# Set force variable

variable Fatom equal -v_f/(count(tip_fix)*1.602176565)
fix forcetip tip_fix aveforce 0.0 0.0 -7.174148670414e-05
run 100
Step          Temp          E_pair         E_mol          TotEng         Press
10249   198.48501     -28111.939      0             -27848.655     -4113.4974
Loop time of 0.243792 on 8 procs for 100 steps with 10522 atoms

unfix forcetip

next i
jump SELF loop_load

variable f equal 0.03+0.01

# Set force variable

variable Fatom equal -v_f/(count(tip_fix)*1.602176565)
fix forcetip tip_fix aveforce 0.0 0.0 -9.565531560552e-05
run 100
Step          Temp          E_pair         E_mol          TotEng         Press
10349   199.78063     -28114.49       0             -27849.488     -3666.5961
Loop time of 0.254236 on 8 procs for 100 steps with 10522 atoms

unfix forcetip

next i
jump SELF loop_load

variable f equal 0.04+0.01

# Set force variable

variable Fatom equal -v_f/(count(tip_fix)*1.602176565)
fix forcetip tip_fix aveforce 0.0 0.0 -0.0001195691445069
run 100
Step          Temp          E_pair         E_mol          TotEng         Press
10449   197.71331     -28112.923      0             -27850.663     -3806.0538
Loop time of 0.25315 on 8 procs for 100 steps with 10522 atoms

unfix forcetip

next i
jump SELF loop_load

variable f equal 0.05+0.01

# Set force variable

variable Fatom equal -v_f/(count(tip_fix)*1.602176565)
fix forcetip tip_fix aveforce 0.0 0.0 -0.00014348297340828
run 100
Step          Temp          E_pair         E_mol          TotEng         Press
10549   197.10476     -28113.097      0             -27851.644     -3860.7309
Loop time of 0.248939 on 8 procs for 100 steps with 10522 atoms

unfix forcetip

next i
jump SELF loop_load

variable f equal 0.06+0.01

# Set force variable

variable Fatom equal -v_f/(count(tip_fix)*1.602176565)
fix forcetip tip_fix aveforce 0.0 0.0 -0.00016739680230966
run 100
Step          Temp          E_pair         E_mol          TotEng         Press
10649   197.87342     -28114.899      0             -27852.426     -3656.1658
Loop time of 0.242532 on 8 procs for 100 steps with 10522 atoms

unfix forcetip

next i
jump SELF loop_load

variable f equal 0.07+0.01

# Set force variable

variable Fatom equal -v_f/(count(tip_fix)*1.602176565)
fix forcetip tip_fix aveforce 0.0 0.0 -0.00019131063121104
run 100
Step          Temp          E_pair         E_mol          TotEng         Press
10749   198.79482     -28115.73       0             -27852.035     -3921.8567
Loop time of 0.248719 on 8 procs for 100 steps with 10522 atoms

unfix forcetip

next i
jump SELF loop_load

variable f equal 0.08+0.01

# Set force variable

variable Fatom equal -v_f/(count(tip_fix)*1.602176565)
fix forcetip tip_fix aveforce 0.0 0.0 -0.00021522446011242
run 100
Step          Temp          E_pair         E_mol          TotEng         Press
10849   197.6727      -28114.964      0             -27852.758     -3551.0914
Loop time of 0.252941 on 8 procs for 100 steps with 10522 atoms

unfix forcetip

next i
jump SELF loop_load

variable f equal 0.09+0.01

# Set force variable

variable Fatom equal -v_f/(count(tip_fix)*1.602176565)
fix forcetip tip_fix aveforce 0.0 0.0 -0.0002391382890138
run 100
Step          Temp          E_pair         E_mol          TotEng         Press
10949   199.27843     -28118.911      0             -27854.575     -3634.7063
Loop time of 0.246604 on 8 procs for 100 steps with 10522 atoms

unfix forcetip

next i
jump SELF loop_load

variable f equal 0.1+0.01

# Set force variable

variable Fatom equal -v_f/(count(tip_fix)*1.602176565)
fix forcetip tip_fix aveforce 0.0 0.0 -0.00026305211791518
run 100
Step          Temp          E_pair         E_mol          TotEng         Press
11049   197.31058     -28117.168      0             -27855.441     -3742.5827
Loop time of 0.255975 on 8 procs for 100 steps with 10522 atoms

unfix forcetip

next i
jump SELF loop_load

variable f equal 0.11+0.01

# Set force variable

variable Fatom equal -v_f/(count(tip_fix)*1.602176565)
fix forcetip tip_fix aveforce 0.0 0.0 -0.00028696594681656
run 100
Step          Temp          E_pair         E_mol          TotEng         Press
11149   197.5686      -28119.093      0             -27857.024     -3845.5063
Loop time of 0.268493 on 8 procs for 100 steps with 10522 atoms

unfix forcetip

next i
jump SELF loop_load

variable f equal 0.12+0.01

# Set force variable

variable Fatom equal -v_f/(count(tip_fix)*1.602176565)
fix forcetip tip_fix aveforce 0.0 0.0 -0.00031087977571794
run 100
Step          Temp          E_pair         E_mol          TotEng         Press
11249   199.44517     -28120.534      0             -27855.976     -3605.4752
Loop time of 0.258714 on 8 procs for 100 steps with 10522 atoms

unfix forcetip

next i
jump SELF loop_load

variable f equal 0.13+0.01

# Set force variable

variable Fatom equal -v_f/(count(tip_fix)*1.602176565)
fix forcetip tip_fix aveforce 0.0 0.0 -0.00033479360461932
run 100
Step          Temp          E_pair         E_mol          TotEng         Press
11349   198.73899     -28118.811      0             -27855.191     -3595.8714
Loop time of 0.258689 on 8 procs for 100 steps with 10522 atoms

unfix forcetip

next i
jump SELF loop_load

variable f equal 0.14+0.01

# Set force variable

variable Fatom equal -v_f/(count(tip_fix)*1.602176565)
fix forcetip tip_fix aveforce 0.0 0.0 -0.0003587074335207
run 100
Step          Temp          E_pair         E_mol          TotEng         Press
11449   197.79268     -28116.921      0             -27854.555     -3737.8348
Loop time of 0.266488 on 8 procs for 100 steps with 10522 atoms

unfix forcetip

next i
jump SELF loop_load

variable f equal 0.15+0.01

# Set force variable

variable Fatom equal -v_f/(count(tip_fix)*1.602176565)
fix forcetip tip_fix aveforce 0.0 0.0 -0.00038262126242208
run 100
Step          Temp          E_pair         E_mol          TotEng         Press
11549   198.97432     -28120.141      0             -27856.208     -3652.898
Loop time of 0.25553 on 8 procs for 100 steps with 10522 atoms

unfix forcetip

next i
jump SELF loop_load

variable f equal 0.16+0.01

# Set force variable

variable Fatom equal -v_f/(count(tip_fix)*1.602176565)
fix forcetip tip_fix aveforce 0.0 0.0 -0.00040653509132346
run 100
Step          Temp          E_pair         E_mol          TotEng         Press
11649   195.05171     -28116.484      0             -27857.755     -3989.3299
Loop time of 0.270909 on 8 procs for 100 steps with 10522 atoms

unfix forcetip

next i
jump SELF loop_load

variable f equal 0.17+0.01

# Set force variable

variable Fatom equal -v_f/(count(tip_fix)*1.602176565)
fix forcetip tip_fix aveforce 0.0 0.0 -0.00043044892022484
run 100
Step          Temp          E_pair         E_mol          TotEng         Press
11749   195.26745     -28117.176      0             -27858.16      -3625.5995
Loop time of 0.298422 on 8 procs for 100 steps with 10522 atoms

unfix forcetip

next i
jump SELF loop_load

variable f equal 0.18+0.01

# Set force variable

variable Fatom equal -v_f/(count(tip_fix)*1.602176565)
fix forcetip tip_fix aveforce 0.0 0.0 -0.00045436274912622
run 100
Step          Temp          E_pair         E_mol          TotEng         Press
11849   195.18557     -28117.623      0             -27858.716     -3842.155
Loop time of 0.261533 on 8 procs for 100 steps with 10522 atoms

unfix forcetip

next i
jump SELF loop_load

variable f equal 0.19+0.01

# Set force variable

variable Fatom equal -v_f/(count(tip_fix)*1.602176565)
fix forcetip tip_fix aveforce 0.0 0.0 -0.0004782765780276
run 100
Step          Temp          E_pair         E_mol          TotEng         Press
11949   198.67794     -28121.426      0             -27857.886     -3943.263
Loop time of 0.288385 on 8 procs for 100 steps with 10522 atoms

unfix forcetip

next i
jump SELF loop_load

variable f equal 0.2+0.01

# Set force variable

variable Fatom equal -v_f/(count(tip_fix)*1.602176565)
fix forcetip tip_fix aveforce 0.0 0.0 -0.00050219040692898
run 100
Step          Temp          E_pair         E_mol          TotEng         Press
12049   196.7617      -28118.616      0             -27857.618     -4068.842
Loop time of 0.26699 on 8 procs for 100 steps with 10522 atoms

unfix forcetip

next i
jump SELF loop_load

variable f equal 0.21+0.01

# Set force variable

variable Fatom equal -v_f/(count(tip_fix)*1.602176565)
fix forcetip tip_fix aveforce 0.0 0.0 -0.00052610423583036
run 100
Step          Temp          E_pair         E_mol          TotEng         Press
12149   198.68212     -28120.657      0             -27857.112     -3620.5876
Loop time of 0.24384 on 8 procs for 100 steps with 10522 atoms

unfix forcetip

next i
jump SELF loop_load

variable f equal 0.22+0.01

# Set force variable

variable Fatom equal -v_f/(count(tip_fix)*1.602176565)
fix forcetip tip_fix aveforce 0.0 0.0 -0.00055001806473174
run 100
Step          Temp          E_pair         E_mol          TotEng         Press
12249   197.04698     -28119.439      0             -27858.062     -3671.8668
Loop time of 0.248394 on 8 procs for 100 steps with 10522 atoms

unfix forcetip

next i
jump SELF loop_load

variable f equal 0.23+0.01

# Set force variable

variable Fatom equal -v_f/(count(tip_fix)*1.602176565)
fix forcetip tip_fix aveforce 0.0 0.0 -0.00057393189363312
run 100
Step          Temp          E_pair         E_mol          TotEng         Press
12349   195.79176     -28118.891      0             -27859.179     -3862.7416
Loop time of 0.275295 on 8 procs for 100 steps with 10522 atoms

unfix forcetip

next i
jump SELF loop_load

variable f equal 0.24+0.01

# Set force variable

variable Fatom equal -v_f/(count(tip_fix)*1.602176565)
fix forcetip tip_fix aveforce 0.0 0.0 -0.0005978457225345
run 100
Step          Temp          E_pair         E_mol          TotEng         Press
12449   195.92129     -28119.392      0             -27859.509     -3999.7059
Loop time of 0.265196 on 8 procs for 100 steps with 10522 atoms

unfix forcetip

next i
jump SELF loop_load

variable f equal 0.25+0.01

# Set force variable

variable Fatom equal -v_f/(count(tip_fix)*1.602176565)
fix forcetip tip_fix aveforce 0.0 0.0 -0.00062175955143588
run 100
Step          Temp          E_pair         E_mol          TotEng         Press
12549   194.8692      -28117.226      0             -27858.739     -3806.9199
Loop time of 0.241202 on 8 procs for 100 steps with 10522 atoms

unfix forcetip

next i
jump SELF loop_load

variable f equal 0.26+0.01

# Set force variable

variable Fatom equal -v_f/(count(tip_fix)*1.602176565)
fix forcetip tip_fix aveforce 0.0 0.0 -0.00064567338033726
run 100
Step          Temp          E_pair         E_mol          TotEng         Press
12649   196.34083     -28119.142      0             -27858.703     -3744.1416
Loop time of 0.246784 on 8 procs for 100 steps with 10522 atoms

unfix forcetip

next i
jump SELF loop_load

variable f equal 0.27+0.01

# Set force variable

variable Fatom equal -v_f/(count(tip_fix)*1.602176565)
fix forcetip tip_fix aveforce 0.0 0.0 -0.00066958720923864
run 100
Step          Temp          E_pair         E_mol          TotEng         Press
12749   194.79271     -28116.204      0             -27857.818     -3550.3878
Loop time of 0.244801 on 8 procs for 100 steps with 10522 atoms

unfix forcetip

next i
jump SELF loop_load

variable f equal 0.28+0.01

# Set force variable

variable Fatom equal -v_f/(count(tip_fix)*1.602176565)
fix forcetip tip_fix aveforce 0.0 0.0 -0.00069350103814002
run 100
Step          Temp          E_pair         E_mol          TotEng         Press
12849   198.30105     -28119.767      0             -27856.727     -3790.55
Loop time of 0.250638 on 8 procs for 100 steps with 10522 atoms

unfix forcetip

next i
jump SELF loop_load

variable f equal 0.29+0.01

# Set force variable

variable Fatom equal -v_f/(count(tip_fix)*1.602176565)
fix forcetip tip_fix aveforce 0.0 0.0 -0.0007174148670414
run 100
Step          Temp          E_pair         E_mol          TotEng         Press
12949   197.47959     -28119.045      0             -27857.095     -3758.8645
Loop time of 0.240096 on 8 procs for 100 steps with 10522 atoms

unfix forcetip

next i
jump SELF loop_load

variable f equal 0.3+0.01

# Set force variable

variable Fatom equal -v_f/(count(tip_fix)*1.602176565)
fix forcetip tip_fix aveforce 0.0 0.0 -0.00074132869594278
run 100
Step          Temp          E_pair         E_mol          TotEng         Press
13049   197.64932     -28121.291      0             -27859.116     -3777.5629
Loop time of 0.252176 on 8 procs for 100 steps with 10522 atoms

unfix forcetip

next i
jump SELF loop_load

variable f equal 0.31+0.01

# Set force variable

variable Fatom equal -v_f/(count(tip_fix)*1.602176565)
fix forcetip tip_fix aveforce 0.0 0.0 -0.00076524252484416
run 100
Step          Temp          E_pair         E_mol          TotEng         Press
13149   198.09509     -28122.192      0             -27859.426     -3768.0194
Loop time of 0.240806 on 8 procs for 100 steps with 10522 atoms

unfix forcetip

next i
jump SELF loop_load

variable f equal 0.32+0.01

# Set force variable

variable Fatom equal -v_f/(count(tip_fix)*1.602176565)
fix forcetip tip_fix aveforce 0.0 0.0 -0.00078915635374554
run 100
Step          Temp          E_pair         E_mol          TotEng         Press
13249   198.40839     -28122.26       0             -27859.078     -3672.28
Loop time of 0.24369 on 8 procs for 100 steps with 10522 atoms

unfix forcetip

next i
jump SELF loop_load

variable f equal 0.33+0.01

# Set force variable

variable Fatom equal -v_f/(count(tip_fix)*1.602176565)
fix forcetip tip_fix aveforce 0.0 0.0 -0.00081307018264692
run 100
Step          Temp          E_pair         E_mol          TotEng         Press
13349   197.2133      -28120.673      0             -27859.076     -3905.906
Loop time of 0.247656 on 8 procs for 100 steps with 10522 atoms

unfix forcetip

next i
jump SELF loop_load

variable f equal 0.34+0.01

# Set force variable

variable Fatom equal -v_f/(count(tip_fix)*1.602176565)
fix forcetip tip_fix aveforce 0.0 0.0 -0.0008369840115483
run 100
Step          Temp          E_pair         E_mol          TotEng         Press
13449   196.78304     -28120.205      0             -27859.178     -4127.5126
Loop time of 0.242828 on 8 procs for 100 steps with 10522 atoms

unfix forcetip

next i
jump SELF loop_load

variable f equal 0.35+0.01

# Set force variable

variable Fatom equal -v_f/(count(tip_fix)*1.602176565)
fix forcetip tip_fix aveforce 0.0 0.0 -0.00086089784044968
run 100
Step          Temp          E_pair         E_mol          TotEng         Press
13549   198.69576     -28120.972      0             -27857.408     -3801.4798
Loop time of 0.249826 on 8 procs for 100 steps with 10522 atoms

unfix forcetip

next i
jump SELF loop_load

variable f equal 0.36+0.01

# Set force variable

variable Fatom equal -v_f/(count(tip_fix)*1.602176565)
fix forcetip tip_fix aveforce 0.0 0.0 -0.00088481166935106
run 100
Step          Temp          E_pair         E_mol          TotEng         Press
13649   198.42343     -28120.253      0             -27857.051     -3422.1918
Loop time of 0.249737 on 8 procs for 100 steps with 10522 atoms

unfix forcetip

next i
jump SELF loop_load

variable f equal 0.37+0.01

# Set force variable

variable Fatom equal -v_f/(count(tip_fix)*1.602176565)
fix forcetip tip_fix aveforce 0.0 0.0 -0.00090872549825244
run 100
Step          Temp          E_pair         E_mol          TotEng         Press
13749   197.91117     -28121.101      0             -27858.578     -3761.843
Loop time of 0.245578 on 8 procs for 100 steps with 10522 atoms

unfix forcetip

next i
jump SELF loop_load

variable f equal 0.38+0.01

# Set force variable

variable Fatom equal -v_f/(count(tip_fix)*1.602176565)
fix forcetip tip_fix aveforce 0.0 0.0 -0.00093263932715382
run 100
Loop time of 0.256475 on 8 procs for 100 steps with 10522 atoms

unfix forcetip

next i
jump SELF loop_load

variable f equal 0.39+0.01

# Set force variable

variable Fatom equal -v_f/(count(tip_fix)*1.602176565)
fix forcetip tip_fix aveforce 0.0 0.0 -0.0009565531560552
run 100
Loop time of 0.250311 on 8 procs for 100 steps with 10522 atoms

unfix forcetip

next i
jump SELF loop_load

variable f equal 0.4+0.01

# Set force variable

variable Fatom equal -v_f/(count(tip_fix)*1.602176565)
fix forcetip tip_fix aveforce 0.0 0.0 -0.00098046698495658
run 100
Loop time of 0.254755 on 8 procs for 100 steps with 10522 atoms

unfix forcetip

next i
jump SELF loop_load

variable f equal 0.41+0.01

# Set force variable

variable Fatom equal -v_f/(count(tip_fix)*1.602176565)
fix forcetip tip_fix aveforce 0.0 0.0 -0.00100438081385796
run 100
Loop time of 0.245019 on 8 procs for 100 steps with 10522 atoms

unfix forcetip

next i
jump SELF loop_load

variable f equal 0.42+0.01

# Set force variable

variable Fatom equal -v_f/(count(tip_fix)*1.602176565)
fix forcetip tip_fix aveforce 0.0 0.0 -0.00102829464275934
run 100
Loop time of 0.25143 on 8 procs for 100 steps with 10522 atoms

unfix forcetip

next i
jump SELF loop_load

variable f equal 0.43+0.01

# Set force variable

variable Fatom equal -v_f/(count(tip_fix)*1.602176565)
fix forcetip tip_fix aveforce 0.0 0.0 -0.00105220847166072
run 100
Loop time of 0.249268 on 8 procs for 100 steps with 10522 atoms

unfix forcetip

next i
jump SELF loop_load

variable f equal 0.44+0.01

# Set force variable

variable Fatom equal -v_f/(count(tip_fix)*1.602176565)
fix forcetip tip_fix aveforce 0.0 0.0 -0.0010761223005621
run 100
Loop time of 0.247682 on 8 procs for 100 steps with 10522 atoms

unfix forcetip

next i
jump SELF loop_load

variable f equal 0.45+0.01

# Set force variable

variable Fatom equal -v_f/(count(tip_fix)*1.602176565)
fix forcetip tip_fix aveforce 0.0 0.0 -0.00110003612946348
run 100
Loop time of 0.248843 on 8 procs for 100 steps with 10522 atoms

unfix forcetip

next i
jump SELF loop_load

variable f equal 0.46+0.01

# Set force variable

variable Fatom equal -v_f/(count(tip_fix)*1.602176565)
fix forcetip tip_fix aveforce 0.0 0.0 -0.00112394995836486
run 100
Loop time of 0.24834 on 8 procs for 100 steps with 10522 atoms

unfix forcetip

next i
jump SELF loop_load

variable f equal 0.47+0.01

# Set force variable

variable Fatom equal -v_f/(count(tip_fix)*1.602176565)
fix forcetip tip_fix aveforce 0.0 0.0 -0.00114786378726624
run 100
Loop time of 0.245926 on 8 procs for 100 steps with 10522 atoms

unfix forcetip

next i
jump SELF loop_load

variable f equal 0.48+0.01

# Set force variable

variable Fatom equal -v_f/(count(tip_fix)*1.602176565)
fix forcetip tip_fix aveforce 0.0 0.0 -0.00117177761616762
run 100
Loop time of 0.246103 on 8 procs for 100 steps with 10522 atoms

unfix forcetip

next i
jump SELF loop_load

variable f equal 0.49+0.01

# Set force variable

variable Fatom equal -v_f/(count(tip_fix)*1.602176565)
fix forcetip tip_fix aveforce 0.0 0.0 -0.001195691445069
run 100
Loop time of 0.248456 on 8 procs for 100 steps with 10522 atoms

unfix forcetip

next i
jump SELF loop_load

variable f equal 0.5+0.01

# Set force variable

variable Fatom equal -v_f/(count(tip_fix)*1.602176565)
fix forcetip tip_fix aveforce 0.0 0.0 -0.00121960527397038
run 100
Loop time of 0.248125 on 8 procs for 100 steps with 10522 atoms

unfix forcetip

next i
jump SELF loop_load

variable f equal 0.51+0.01

# Set force variable

variable Fatom equal -v_f/(count(tip_fix)*1.602176565)
fix forcetip tip_fix aveforce 0.0 0.0 -0.00124351910287176
run 100
Loop time of 0.251274 on 8 procs for 100 steps with 10522 atoms

unfix forcetip

next i
jump SELF loop_load

variable f equal 0.52+0.01

# Set force variable

variable Fatom equal -v_f/(count(tip_fix)*1.602176565)
fix forcetip tip_fix aveforce 0.0 0.0 -0.00126743293177314
run 100
Loop time of 0.250295 on 8 procs for 100 steps with 10522 atoms

unfix forcetip

next i
jump SELF loop_load

variable f equal 0.53+0.01

# Set force variable

variable Fatom equal -v_f/(count(tip_fix)*1.602176565)
fix forcetip tip_fix aveforce 0.0 0.0 -0.00129134676067452
run 100
Loop time of 0.268004 on 8 procs for 100 steps with 10522 atoms

unfix forcetip

next i
jump SELF loop_load

variable f equal 0.54+0.01

# Set force variable

variable Fatom equal -v_f/(count(tip_fix)*1.602176565)
fix forcetip tip_fix aveforce 0.0 0.0 -0.0013152605895759
run 100
Loop time of 0.251338 on 8 procs for 100 steps with 10522 atoms

unfix forcetip

next i
jump SELF loop_load

variable f equal 0.55+0.01

# Set force variable

variable Fatom equal -v_f/(count(tip_fix)*1.602176565)
fix forcetip tip_fix aveforce 0.0 0.0 -0.00133917441847728
run 100
Loop time of 0.26226 on 8 procs for 100 steps with 10522 atoms

unfix forcetip

next i
jump SELF loop_load

variable f equal 0.56+0.01

# Set force variable

variable Fatom equal -v_f/(count(tip_fix)*1.602176565)
fix forcetip tip_fix aveforce 0.0 0.0 -0.00136308824737866
run 100
Loop time of 0.250699 on 8 procs for 100 steps with 10522 atoms

unfix forcetip

next i
jump SELF loop_load

variable f equal 0.57+0.01

# Set force variable

variable Fatom equal -v_f/(count(tip_fix)*1.602176565)
fix forcetip tip_fix aveforce 0.0 0.0 -0.00138700207628004
run 100
Loop time of 0.249869 on 8 procs for 100 steps with 10522 atoms

unfix forcetip

next i
jump SELF loop_load

variable f equal 0.58+0.01

# Set force variable

variable Fatom equal -v_f/(count(tip_fix)*1.602176565)
fix forcetip tip_fix aveforce 0.0 0.0 -0.00141091590518142
run 100
Loop time of 0.248997 on 8 procs for 100 steps with 10522 atoms

unfix forcetip

next i
jump SELF loop_load

variable f equal 0.59+0.01

# Set force variable

variable Fatom equal -v_f/(count(tip_fix)*1.602176565)
fix forcetip tip_fix aveforce 0.0 0.0 -0.0014348297340828
run 100
Loop time of 0.244801 on 8 procs for 100 steps with 10522 atoms

unfix forcetip

next i
jump SELF loop_load

variable f equal 0.6+0.01

# Set force variable

variable Fatom equal -v_f/(count(tip_fix)*1.602176565)
fix forcetip tip_fix aveforce 0.0 0.0 -0.00145874356298418
run 100
Loop time of 0.245467 on 8 procs for 100 steps with 10522 atoms

unfix forcetip

next i
jump SELF loop_load

variable f equal 0.61+0.01

# Set force variable

variable Fatom equal -v_f/(count(tip_fix)*1.602176565)
fix forcetip tip_fix aveforce 0.0 0.0 -0.00148265739188556
run 100
Loop time of 0.243552 on 8 procs for 100 steps with 10522 atoms

unfix forcetip

next i
jump SELF loop_load

variable f equal 0.62+0.01

# Set force variable

variable Fatom equal -v_f/(count(tip_fix)*1.602176565)
fix forcetip tip_fix aveforce 0.0 0.0 -0.00150657122078694
run 100
Loop time of 0.246497 on 8 procs for 100 steps with 10522 atoms

unfix forcetip

next i
jump SELF loop_load

variable f equal 0.63+0.01

# Set force variable

variable Fatom equal -v_f/(count(tip_fix)*1.602176565)
fix forcetip tip_fix aveforce 0.0 0.0 -0.00153048504968832
run 100
Loop time of 0.249281 on 8 procs for 100 steps with 10522 atoms

unfix forcetip

next i
jump SELF loop_load

variable f equal 0.64+0.01

# Set force variable

variable Fatom equal -v_f/(count(tip_fix)*1.602176565)
fix forcetip tip_fix aveforce 0.0 0.0 -0.0015543988785897
run 100
Loop time of 0.24963 on 8 procs for 100 steps with 10522 atoms

unfix forcetip

next i
jump SELF loop_load

variable f equal 0.65+0.01

# Set force variable

variable Fatom equal -v_f/(count(tip_fix)*1.602176565)
fix forcetip tip_fix aveforce 0.0 0.0 -0.00157831270749108
run 100
Loop time of 0.252617 on 8 procs for 100 steps with 10522 atoms

unfix forcetip

next i
jump SELF loop_load

variable f equal 0.66+0.01

# Set force variable

variable Fatom equal -v_f/(count(tip_fix)*1.602176565)
fix forcetip tip_fix aveforce 0.0 0.0 -0.00160222653639246
run 100
Loop time of 0.245932 on 8 procs for 100 steps with 10522 atoms

unfix forcetip

next i
jump SELF loop_load

variable f equal 0.67+0.01

# Set force variable

variable Fatom equal -v_f/(count(tip_fix)*1.602176565)
fix forcetip tip_fix aveforce 0.0 0.0 -0.00162614036529384
run 100
Loop time of 0.249674 on 8 procs for 100 steps with 10522 atoms

unfix forcetip

next i
jump SELF loop_load

variable f equal 0.68+0.01

# Set force variable

variable Fatom equal -v_f/(count(tip_fix)*1.602176565)
fix forcetip tip_fix aveforce 0.0 0.0 -0.00165005419419522
run 100
Loop time of 0.262396 on 8 procs for 100 steps with 10522 atoms

unfix forcetip

next i
jump SELF loop_load

variable f equal 0.69+0.01

# Set force variable

variable Fatom equal -v_f/(count(tip_fix)*1.602176565)
fix forcetip tip_fix aveforce 0.0 0.0 -0.0016739680230966
run 100
Loop time of 0.265756 on 8 procs for 100 steps with 10522 atoms

unfix forcetip

next i
jump SELF loop_load

variable f equal 0.7+0.01

# Set force variable

variable Fatom equal -v_f/(count(tip_fix)*1.602176565)
fix forcetip tip_fix aveforce 0.0 0.0 -0.00169788185199798
run 100
Loop time of 0.299252 on 8 procs for 100 steps with 10522 atoms

unfix forcetip

next i
jump SELF loop_load

variable f equal 0.71+0.01

# Set force variable

variable Fatom equal -v_f/(count(tip_fix)*1.602176565)
fix forcetip tip_fix aveforce 0.0 0.0 -0.00172179568089936
run 100
Loop time of 0.263202 on 8 procs for 100 steps with 10522 atoms

unfix forcetip

next i
jump SELF loop_load

variable f equal 0.72+0.01

# Set force variable

variable Fatom equal -v_f/(count(tip_fix)*1.602176565)
fix forcetip tip_fix aveforce 0.0 0.0 -0.00174570950980074
run 100
Loop time of 0.272202 on 8 procs for 100 steps with 10522 atoms

unfix forcetip

next i
jump SELF loop_load

variable f equal 0.73+0.01

# Set force variable

variable Fatom equal -v_f/(count(tip_fix)*1.602176565)
fix forcetip tip_fix aveforce 0.0 0.0 -0.00176962333870212
run 100
Loop time of 0.256553 on 8 procs for 100 steps with 10522 atoms

unfix forcetip

next i
jump SELF loop_load

variable f equal 0.74+0.01

# Set force variable

variable Fatom equal -v_f/(count(tip_fix)*1.602176565)
fix forcetip tip_fix aveforce 0.0 0.0 -0.0017935371676035
run 100
Loop time of 0.253103 on 8 procs for 100 steps with 10522 atoms

unfix forcetip

next i
jump SELF loop_load

variable f equal 0.75+0.01

# Set force variable

variable Fatom equal -v_f/(count(tip_fix)*1.602176565)
fix forcetip tip_fix aveforce 0.0 0.0 -0.00181745099650488
run 100
Loop time of 0.256451 on 8 procs for 100 steps with 10522 atoms

unfix forcetip

next i
jump SELF loop_load

variable f equal 0.76+0.01

# Set force variable

variable Fatom equal -v_f/(count(tip_fix)*1.602176565)
fix forcetip tip_fix aveforce 0.0 0.0 -0.00184136482540626
run 100
Loop time of 0.252998 on 8 procs for 100 steps with 10522 atoms

unfix forcetip

next i
jump SELF loop_load

variable f equal 0.77+0.01

# Set force variable

variable Fatom equal -v_f/(count(tip_fix)*1.602176565)
fix forcetip tip_fix aveforce 0.0 0.0 -0.00186527865430764
run 100
Loop time of 0.246891 on 8 procs for 100 steps with 10522 atoms

unfix forcetip

next i
jump SELF loop_load

variable f equal 0.78+0.01

# Set force variable

variable Fatom equal -v_f/(count(tip_fix)*1.602176565)
fix forcetip tip_fix aveforce 0.0 0.0 -0.00188919248320902
run 100
Loop time of 0.248732 on 8 procs for 100 steps with 10522 atoms

unfix forcetip

next i
jump SELF loop_load

variable f equal 0.79+0.01

# Set force variable

variable Fatom equal -v_f/(count(tip_fix)*1.602176565)
fix forcetip tip_fix aveforce 0.0 0.0 -0.0019131063121104
run 100
Loop time of 0.259583 on 8 procs for 100 steps with 10522 atoms

unfix forcetip

next i
jump SELF loop_load

variable f equal 0.8+0.01

# Set force variable

variable Fatom equal -v_f/(count(tip_fix)*1.602176565)
fix forcetip tip_fix aveforce 0.0 0.0 -0.00193702014101178
run 100
Loop time of 0.307214 on 8 procs for 100 steps with 10522 atoms

unfix forcetip

next i
jump SELF loop_load

variable f equal 0.81+0.01

# Set force variable

variable Fatom equal -v_f/(count(tip_fix)*1.602176565)
fix forcetip tip_fix aveforce 0.0 0.0 -0.00196093396991316
run 100
Loop time of 0.264443 on 8 procs for 100 steps with 10522 atoms

unfix forcetip

next i
jump SELF loop_load

variable f equal 0.82+0.01

# Set force variable

variable Fatom equal -v_f/(count(tip_fix)*1.602176565)
fix forcetip tip_fix aveforce 0.0 0.0 -0.00198484779881454
run 100
Loop time of 0.265172 on 8 procs for 100 steps with 10522 atoms

unfix forcetip

next i
jump SELF loop_load

variable f equal 0.83+0.01

# Set force variable

variable Fatom equal -v_f/(count(tip_fix)*1.602176565)
fix forcetip tip_fix aveforce 0.0 0.0 -0.00200876162771592
run 100
Loop time of 0.252412 on 8 procs for 100 steps with 10522 atoms

unfix forcetip

next i
jump SELF loop_load

variable f equal 0.84+0.01

# Set force variable

variable Fatom equal -v_f/(count(tip_fix)*1.602176565)
fix forcetip tip_fix aveforce 0.0 0.0 -0.0020326754566173
run 100
Loop time of 0.256201 on 8 procs for 100 steps with 10522 atoms

unfix forcetip

next i
jump SELF loop_load

variable f equal 0.85+0.01

# Set force variable

variable Fatom equal -v_f/(count(tip_fix)*1.602176565)
fix forcetip tip_fix aveforce 0.0 0.0 -0.00205658928551868
run 100
Loop time of 0.262646 on 8 procs for 100 steps with 10522 atoms

unfix forcetip

next i
jump SELF loop_load

variable f equal 0.86+0.01

# Set force variable

variable Fatom equal -v_f/(count(tip_fix)*1.602176565)
fix forcetip tip_fix aveforce 0.0 0.0 -0.00208050311442006
run 100
Loop time of 0.267882 on 8 procs for 100 steps with 10522 atoms

unfix forcetip

next i
jump SELF loop_load

variable f equal 0.87+0.01

# Set force variable

variable Fatom equal -v_f/(count(tip_fix)*1.602176565)
fix forcetip tip_fix aveforce 0.0 0.0 -0.00210441694332144
run 100
Loop time of 0.268717 on 8 procs for 100 steps with 10522 atoms

unfix forcetip

next i
jump SELF loop_load

variable f equal 0.88+0.01

# Set force variable

variable Fatom equal -v_f/(count(tip_fix)*1.602176565)
fix forcetip tip_fix aveforce 0.0 0.0 -0.00212833077222282
run 100
Loop time of 0.267802 on 8 procs for 100 steps with 10522 atoms

unfix forcetip

next i
jump SELF loop_load

variable f equal 0.89+0.01

# Set force variable

variable Fatom equal -v_f/(count(tip_fix)*1.602176565)
fix forcetip tip_fix aveforce 0.0 0.0 -0.0021522446011242
run 100
Loop time of 0.259735 on 8 procs for 100 steps with 10522 atoms

unfix forcetip

next i
jump SELF loop_load

variable f equal 0.9+0.01

# Set force variable

variable Fatom equal -v_f/(count(tip_fix)*1.602176565)
fix forcetip tip_fix aveforce 0.0 0.0 -0.00217615843002558
run 100
Loop time of 0.271933 on 8 procs for 100 steps with 10522 atoms

unfix forcetip

next i
jump SELF loop_load

variable f equal 0.91+0.01

# Set force variable

variable Fatom equal -v_f/(count(tip_fix)*1.602176565)
fix forcetip tip_fix aveforce 0.0 0.0 -0.00220007225892696
run 100
Loop time of 0.274008 on 8 procs for 100 steps with 10522 atoms

unfix forcetip

next i
jump SELF loop_load

variable f equal 0.92+0.01

# Set force variable

variable Fatom equal -v_f/(count(tip_fix)*1.602176565)
fix forcetip tip_fix aveforce 0.0 0.0 -0.00222398608782834
run 100
Loop time of 0.273715 on 8 procs for 100 steps with 10522 atoms

unfix forcetip

next i
jump SELF loop_load

variable f equal 0.93+0.01

# Set force variable

variable Fatom equal -v_f/(count(tip_fix)*1.602176565)
fix forcetip tip_fix aveforce 0.0 0.0 -0.00224789991672972
run 100
Loop time of 0.264919 on 8 procs for 100 steps with 10522 atoms

unfix forcetip

next i
jump SELF loop_load

variable f equal 0.94+0.01

# Set force variable

variable Fatom equal -v_f/(count(tip_fix)*1.602176565)
fix forcetip tip_fix aveforce 0.0 0.0 -0.0022718137456311
run 100
Loop time of 0.278483 on 8 procs for 100 steps with 10522 atoms

unfix forcetip

next i
jump SELF loop_load

variable f equal 0.95+0.01

# Set force variable

variable Fatom equal -v_f/(count(tip_fix)*1.602176565)
fix forcetip tip_fix aveforce 0.0 0.0 -0.00229572757453248
run 100
Loop time of 0.262085 on 8 procs for 100 steps with 10522 atoms

unfix forcetip

next i
jump SELF loop_load

variable f equal 0.96+0.01

# Set force variable

variable Fatom equal -v_f/(count(tip_fix)*1.602176565)
fix forcetip tip_fix aveforce 0.0 0.0 -0.00231964140343386
run 100
Loop time of 0.273294 on 8 procs for 100 steps with 10522 atoms

unfix forcetip

next i
jump SELF loop_load

variable f equal 0.97+0.01

# Set force variable

variable Fatom equal -v_f/(count(tip_fix)*1.602176565)
fix forcetip tip_fix aveforce 0.0 0.0 -0.00234355523233524
run 100
Loop time of 0.276584 on 8 procs for 100 steps with 10522 atoms

unfix forcetip

next i
jump SELF loop_load

variable f equal 0.98+0.01

# Set force variable

variable Fatom equal -v_f/(count(tip_fix)*1.602176565)
fix forcetip tip_fix aveforce 0.0 0.0 -0.00236746906123662
run 100
Loop time of 0.258736 on 8 procs for 100 steps with 10522 atoms

unfix forcetip

next i
jump SELF loop_load

variable f equal 0.99+0.01

# Set force variable

variable Fatom equal -v_f/(count(tip_fix)*1.602176565)
fix forcetip tip_fix aveforce 0.0 0.0 -0.002391382890138
run 100
Loop time of 0.253278 on 8 procs for 100 steps with 10522 atoms

unfix forcetip

next i
jump SELF loop_load

variable f equal 1+0.01

# Set force variable

variable Fatom equal -v_f/(count(tip_fix)*1.602176565)
fix forcetip tip_fix aveforce 0.0 0.0 -0.00241529671903938
run 100
Loop time of 0.25884 on 8 procs for 100 steps with 10522 atoms

unfix forcetip

next i
jump SELF loop_load

variable f equal 1.01+0.01

# Set force variable

variable Fatom equal -v_f/(count(tip_fix)*1.602176565)
fix forcetip tip_fix aveforce 0.0 0.0 -0.00243921054794076
run 100
Loop time of 0.260487 on 8 procs for 100 steps with 10522 atoms

unfix forcetip

next i
jump SELF loop_load

variable f equal 1.02+0.01

# Set force variable

variable Fatom equal -v_f/(count(tip_fix)*1.602176565)
fix forcetip tip_fix aveforce 0.0 0.0 -0.00246312437684214
run 100
Loop time of 0.26325 on 8 procs for 100 steps with 10522 atoms

unfix forcetip

next i
jump SELF loop_load

variable f equal 1.03+0.01

# Set force variable

variable Fatom equal -v_f/(count(tip_fix)*1.602176565)
fix forcetip tip_fix aveforce 0.0 0.0 -0.00248703820574352
run 100
Loop time of 0.268855 on 8 procs for 100 steps with 10522 atoms

unfix forcetip

next i
jump SELF loop_load

variable f equal 1.04+0.01

# Set force variable

variable Fatom equal -v_f/(count(tip_fix)*1.602176565)
fix forcetip tip_fix aveforce 0.0 0.0 -0.0025109520346449
run 100
Loop time of 0.275144 on 8 procs for 100 steps with 10522 atoms

unfix forcetip

next i
jump SELF loop_load

variable f equal 1.05+0.01

# Set force variable

variable Fatom equal -v_f/(count(tip_fix)*1.602176565)
fix forcetip tip_fix aveforce 0.0 0.0 -0.00253486586354628
run 100
Loop time of 0.261928 on 8 procs for 100 steps with 10522 atoms

unfix forcetip

next i
jump SELF loop_load

variable f equal 1.06+0.01

# Set force variable

variable Fatom equal -v_f/(count(tip_fix)*1.602176565)
fix forcetip tip_fix aveforce 0.0 0.0 -0.00255877969244766
run 100
Loop time of 0.262782 on 8 procs for 100 steps with 10522 atoms

unfix forcetip

next i
jump SELF loop_load

variable f equal 1.07+0.01

# Set force variable

variable Fatom equal -v_f/(count(tip_fix)*1.602176565)
fix forcetip tip_fix aveforce 0.0 0.0 -0.00258269352134904
run 100
Loop time of 0.262269 on 8 procs for 100 steps with 10522 atoms

unfix forcetip

next i
jump SELF loop_load

variable f equal 1.08+0.01

# Set force variable

variable Fatom equal -v_f/(count(tip_fix)*1.602176565)
fix forcetip tip_fix aveforce 0.0 0.0 -0.00260660735025042
run 100
